Version 4.1
SHEET 1 2844 1620
WIRE 2368 752 2256 752
WIRE 2480 752 2368 752
WIRE 2592 752 2480 752
WIRE 2720 752 2592 752
WIRE 2784 752 2720 752
WIRE 2256 800 2256 752
WIRE 2368 800 2368 752
WIRE 2480 800 2480 752
WIRE 1968 928 1856 928
WIRE 2256 928 2256 864
WIRE 2256 928 2048 928
WIRE 2592 1024 2592 752
WIRE 944 1072 608 1072
WIRE 1856 1072 1856 928
WIRE 1856 1072 1632 1072
WIRE 1968 1072 1856 1072
WIRE 2368 1072 2368 864
WIRE 2368 1072 2048 1072
WIRE 944 1136 944 1072
WIRE 944 1136 864 1136
WIRE 1008 1136 944 1136
WIRE 608 1152 608 1072
WIRE 1856 1216 1856 1072
WIRE 1968 1216 1856 1216
WIRE 2480 1216 2480 864
WIRE 2480 1216 2048 1216
WIRE 1008 1232 1008 1200
WIRE 1248 1232 1008 1232
WIRE 864 1248 864 1200
WIRE 1216 1248 864 1248
WIRE 864 1264 864 1248
WIRE 1008 1264 1008 1232
WIRE 1216 1264 1216 1248
WIRE 2256 1264 2256 928
WIRE 2368 1264 2368 1072
WIRE 2480 1264 2480 1216
WIRE 944 1328 864 1328
WIRE 1008 1328 944 1328
WIRE 608 1360 608 1232
WIRE 944 1360 944 1328
WIRE 944 1360 608 1360
WIRE 2256 1376 2256 1328
WIRE 2368 1376 2368 1328
WIRE 2368 1376 2256 1376
WIRE 2480 1376 2480 1328
WIRE 2480 1376 2368 1376
WIRE 2592 1376 2592 1088
WIRE 2592 1376 2480 1376
WIRE 2784 1376 2592 1376
WIRE 2784 1472 2784 1376
WIRE 1632 1504 1632 1072
FLAG 1216 1264 0
FLAG 1248 1232 OUT
FLAG 2720 752 DC_out
FLAG 1632 1504 0
SYMBOL voltage 608 1136 R0
WINDOW 123 0 0 Left 2
WINDOW 39 0 0 Left 2
SYMATTR InstName V4
SYMATTR Value SINE(0 162.6 60)
SYMBOL diode 848 1264 R0
SYMATTR InstName D11
SYMBOL diode 1024 1328 R180
WINDOW 0 24 64 Left 2
WINDOW 3 24 0 Left 2
SYMATTR InstName D12
SYMBOL diode 880 1200 R180
WINDOW 0 24 64 Left 2
WINDOW 3 24 0 Left 2
SYMATTR InstName D13
SYMBOL diode 992 1136 R0
SYMATTR InstName D14
SYMBOL voltage 2064 928 R90
WINDOW 0 -32 56 VBottom 2
WINDOW 3 32 56 VTop 2
WINDOW 123 0 0 Left 0
WINDOW 39 0 0 Left 0
SYMATTR InstName V5
SYMATTR Value SINE(0 162.6 60 0 0 0)
SYMBOL voltage 2064 1072 R90
WINDOW 0 -32 56 VBottom 2
WINDOW 3 32 56 VTop 2
WINDOW 123 0 0 Left 0
WINDOW 39 0 0 Left 0
SYMATTR InstName V6
SYMATTR Value SINE(0 162.6 60 0 0 120)
SYMBOL voltage 2064 1216 R90
WINDOW 0 -32 56 VBottom 2
WINDOW 3 32 56 VTop 2
WINDOW 123 0 0 Left 0
WINDOW 39 0 0 Left 0
SYMATTR InstName V7
SYMATTR Value SINE(0 162.6 60 0 0 240)
SYMBOL diode 2272 864 R180
WINDOW 0 24 64 Left 2
WINDOW 3 24 0 Left 2
SYMATTR InstName D7
SYMBOL diode 2496 1328 R180
WINDOW 0 24 64 Left 2
WINDOW 3 24 0 Left 2
SYMATTR InstName D8
SYMBOL diode 2384 864 R180
WINDOW 0 24 64 Left 2
WINDOW 3 24 0 Left 2
SYMATTR InstName D9
SYMBOL diode 2272 1328 R180
WINDOW 0 24 64 Left 2
WINDOW 3 24 0 Left 2
SYMATTR InstName D10
SYMBOL diode 2496 864 R180
WINDOW 0 24 64 Left 2
WINDOW 3 24 0 Left 2
SYMATTR InstName D15
SYMBOL diode 2384 1328 R180
WINDOW 0 24 64 Left 2
WINDOW 3 24 0 Left 2
SYMATTR InstName D16
SYMBOL cap 2576 1024 R0
SYMATTR InstName C1
SYMATTR Value 1980µF
TEXT 608 944 Left 4 ;Full bridge rectifier
TEXT 1568 904 Left 2 !.tran .016666666
TEXT 1904 656 Left 2 ;Three phase AC/DC diode bridge rectifier
TEXT 1568 848 Left 2 ;Transient simulation
TEXT 576 648 Left 2 ;115VAC is RMS\nPeak-to-peak is closer to 162.6VAC\nRMS = Peak / sqrt(2)
