Version 4.1
SHEET 1 1704 724
WIRE 1584 -16 1168 -16
WIRE 1056 64 944 64
WIRE 1168 64 1168 -16
WIRE 1168 64 1136 64
WIRE 1184 64 1168 64
WIRE 1584 64 1584 -16
WIRE 1632 64 1584 64
WIRE 1632 96 1440 96
WIRE 1632 128 1472 128
WIRE 1440 160 1440 96
WIRE 1440 160 1168 160
WIRE 944 208 944 64
WIRE 944 208 784 208
WIRE 1056 208 944 208
WIRE 1184 208 1136 208
WIRE 1168 224 1168 160
WIRE 1472 304 1472 128
WIRE 1472 304 1168 304
WIRE 944 352 944 208
WIRE 1056 352 944 352
WIRE 1168 352 1168 304
WIRE 1168 352 1136 352
WIRE 1184 352 1168 352
WIRE 784 608 784 208
WIRE 1168 608 784 608
WIRE 1232 608 1168 608
WIRE 1232 704 1232 608
FLAG 1168 608 Neutral
FLAG 1184 64 PhaseA
FLAG 1184 208 PhaseB
FLAG 1184 352 PhaseC
FLAG 1232 704 0
SYMBOL voltage 1152 64 R90
WINDOW 0 -32 56 VBottom 2
WINDOW 3 32 56 VTop 2
WINDOW 123 0 0 Left 0
WINDOW 39 0 0 Left 0
SYMATTR InstName V1
SYMATTR Value SINE(0 162.6 60 0 0 0)
SYMBOL voltage 1152 208 R90
WINDOW 0 -32 56 VBottom 2
WINDOW 3 32 56 VTop 2
WINDOW 123 0 0 Left 0
WINDOW 39 0 0 Left 0
SYMATTR InstName V2
SYMATTR Value SINE(0 162.6 60 0 0 120)
SYMBOL voltage 1152 352 R90
WINDOW 0 -32 56 VBottom 2
WINDOW 3 32 56 VTop 2
WINDOW 123 0 0 Left 0
WINDOW 39 0 0 Left 0
SYMATTR InstName V3
SYMATTR Value SINE(0 162.6 60 0 0 240)
SYMBOL Power_Conditioning\\BrdgRect 1664 96 R0
SYMATTR InstName U1
TEXT 656 40 Left 2 !.tran .016666666
TEXT 656 -16 Left 2 ;Transient simulation
TEXT 656 -128 Left 2 ;115VAC is RMS\nPeak-to-peak is closer to 162.6VAC\nRMS = Peak / sqrt(2)
