Version 4.1
SHEET 1 880 680
SYMBOL Pwr\\3ph_ACMotor 240 176 R0
SYMATTR InstName U1
TEXT 176 296 Left 2 !.tran 80m
