Version 4
SHEET 1 1056 680
WIRE -272 -336 -304 -336
WIRE -304 -288 -304 -336
WIRE -192 -288 -304 -288
WIRE -128 -288 -192 -288
WIRE 240 -288 160 -288
WIRE -304 -224 -304 -288
WIRE -192 -224 -192 -288
WIRE -128 -224 -192 -224
WIRE -464 -208 -512 -208
WIRE 16 -144 16 -192
WIRE -464 -128 -464 -208
WIRE -464 -48 -544 -48
WIRE -400 -48 -464 -48
WIRE 32 -32 0 -32
WIRE -544 -16 -544 -48
WIRE -400 -16 -400 -48
WIRE -208 -16 -224 -16
WIRE -112 -16 -128 -16
WIRE 32 -16 32 -32
WIRE -48 0 -48 -32
WIRE -112 16 -112 -16
WIRE -80 16 -112 16
WIRE 0 16 0 -32
WIRE -224 64 -224 -16
WIRE -224 64 -400 64
WIRE -192 64 -224 64
WIRE 256 96 96 96
WIRE 288 96 256 96
WIRE -544 112 -544 64
WIRE -224 112 -544 112
WIRE -192 112 -224 112
WIRE -544 144 -544 112
WIRE -400 144 -400 64
WIRE 48 160 48 144
WIRE 64 160 48 160
WIRE 176 160 144 160
WIRE 256 160 256 96
WIRE -80 176 -112 176
WIRE -224 192 -224 112
WIRE -208 192 -224 192
WIRE -112 192 -112 176
WIRE -112 192 -128 192
WIRE 48 208 48 160
WIRE 80 208 48 208
WIRE 0 240 0 176
WIRE 0 240 -80 240
WIRE 80 240 80 208
WIRE -544 256 -544 224
WIRE -464 256 -544 256
WIRE -400 256 -400 224
WIRE -400 256 -464 256
WIRE -80 336 -80 240
WIRE -464 368 -464 336
FLAG -464 368 0
FLAG -192 64 Vin+
FLAG -192 112 Vin-
FLAG -304 -144 0
FLAG -272 -336 Vcc
FLAG -48 -32 Vcc
FLAG 16 -144 0
FLAG -48 192 0
FLAG 32 -16 0
FLAG 288 96 Vout
FLAG 240 -288 Vref
FLAG -80 416 0
FLAG -512 -208 Vref
SYMBOL AD8237 -48 96 R0
WINDOW 0 124 -71 Left 2
WINDOW 3 123 -39 Left 2
SYMATTR InstName U1
SYMATTR Description Wide Supply Range R-R output In-Amp
SYMBOL res -480 -144 R0
SYMATTR InstName Rexc1
SYMATTR Value {Rs}
SYMBOL res -560 -32 R0
SYMATTR InstName Rb1
SYMATTR Value {Ro+Rf}
SYMBOL res -416 -32 R0
SYMATTR InstName Rb2
SYMATTR Value {Ro-Rf}
SYMBOL res -560 128 R0
SYMATTR InstName Rb3
SYMATTR Value {Ro-Rf}
SYMBOL res -416 128 R0
SYMATTR InstName Rb4
SYMATTR Value {Ro+Rf}
SYMBOL res -480 240 R0
SYMATTR InstName Rexc2
SYMATTR Value {Rs}
SYMBOL voltage -304 -240 R0
WINDOW 123 0 0 Left 0
WINDOW 39 0 0 Left 0
SYMATTR InstName Vcc
SYMATTR Value 5
SYMBOL res 160 144 R90
WINDOW 0 -9 44 VBottom 2
WINDOW 3 35 43 VTop 2
SYMATTR InstName R2A
SYMATTR Value 777k
SYMBOL res 96 224 R90
WINDOW 0 57 72 VBottom 2
WINDOW 3 59 75 VTop 2
SYMATTR InstName R1
SYMATTR Value 1k
SYMBOL voltage -80 320 R0
SYMATTR InstName Voffset_dac
SYMATTR Value 37.5m
SYMBOL res 272 144 R90
WINDOW 0 -6 58 VBottom 2
WINDOW 3 39 52 VTop 2
SYMATTR InstName R2B
SYMATTR Value 3.24k
SYMBOL LT1461-4.096 16 -256 R0
SYMATTR InstName U3
SYMBOL voltage -112 -16 R90
WINDOW 0 -32 56 VBottom 2
WINDOW 3 32 56 VTop 2
SYMATTR InstName Vp
SYMATTR Value 0
SYMBOL voltage -112 192 R90
WINDOW 0 -32 56 VBottom 2
WINDOW 3 32 56 VTop 2
SYMATTR InstName Vm
SYMATTR Value 0
TEXT -1248 -264 Left 2 !.include Bridge Sensor Typical.lib
TEXT -1248 -112 Left 2 !.param Vforce=1\n.param Vforce_max=1\n.param Vin_Span=1.5m\n.param Ro=350 Rs=1m\n.param Rf={Vin_Span*(Vforce/Vforce_max)*(Ro+2*Rs)}
TEXT -1248 -296 Left 2 !.op
TEXT -1248 -328 Left 2 !.step param Vforce 0 1 0.1
TEXT -1240 -184 Left 2 ;*Strain = Vforce with 1lb = 1V\n*Strain is swept from 0lb to 1lb in 0.1lb increments
