Version 4.1
SHEET 1 880 680
WIRE 16 -160 -192 -160
WIRE 16 -112 16 -160
WIRE 16 -32 -64 -32
WIRE 80 -32 16 -32
WIRE -64 0 -64 -32
WIRE 80 0 80 -32
WIRE 416 16 256 16
WIRE -192 64 -192 -160
WIRE 256 80 256 16
WIRE 256 80 80 80
WIRE 288 80 256 80
WIRE 416 80 416 16
WIRE 688 80 560 80
WIRE -64 128 -64 80
WIRE 256 128 -64 128
WIRE 288 128 256 128
WIRE -64 160 -64 128
WIRE 80 160 80 80
WIRE 256 176 256 128
WIRE 496 176 496 144
WIRE 496 176 256 176
WIRE -64 272 -64 240
WIRE 16 272 -64 272
WIRE 80 272 80 240
WIRE 80 272 16 272
WIRE 16 384 16 352
FLAG 16 384 0
FLAG -192 144 0
FLAG 288 80 Vin+
FLAG 288 128 Vin-
FLAG 688 80 Strain
SYMBOL res 0 -128 R0
SYMATTR InstName Rexc1
SYMATTR Value {Rs}
SYMBOL res -80 -16 R0
SYMATTR InstName Rb1
SYMATTR Value {Ro+Rf}
SYMBOL res 64 -16 R0
SYMATTR InstName Rb2
SYMATTR Value {Ro-Rf}
SYMBOL res -80 144 R0
SYMATTR InstName Rb3
SYMATTR Value {Ro-Rf}
SYMBOL res 64 144 R0
SYMATTR InstName Rb4
SYMATTR Value {Ro+Rf}
SYMBOL res 0 256 R0
SYMATTR InstName Rexc2
SYMATTR Value {Rs}
SYMBOL voltage -192 48 R0
SYMATTR InstName Vexc
SYMATTR Value 4.096
SYMBOL Subtractor 496 80 R0
SYMATTR InstName X1
TEXT -840 128 Left 2 !.param Vforce=1\n.param Vforce_max=1\n.param Vin_Span=1.5m\n.param Ro=350 Rs=1f\n.param Rf={Vin_Span*(Vforce/Vforce_max)*(Ro+2*Rs)}
TEXT -832 -56 Left 2 !.op
TEXT -832 -24 Left 2 !.step param Vforce 0 1 0.1
TEXT -848 40 Left 2 ;*Strain = Vforce with 1lb = 1V\n*Strain is swept from 0lb to 1lb in 0.1lb increments
