Version 4
SHEET 1 1228 680
WIRE 288 0 160 0
WIRE 288 16 176 16
WIRE 288 32 192 32
WIRE 288 48 208 48
WIRE 288 64 240 64
WIRE 288 80 256 80
WIRE 160 96 160 0
WIRE 176 96 176 16
WIRE 192 96 192 32
WIRE 208 96 208 48
WIRE 240 96 240 64
WIRE 256 96 256 80
WIRE 112 128 64 128
WIRE 144 128 112 128
WIRE 384 128 272 128
WIRE 144 144 144 128
WIRE 176 144 144 144
WIRE 576 144 480 144
WIRE 112 160 64 160
WIRE 384 160 112 160
WIRE 544 176 480 176
WIRE 576 176 544 176
WIRE 112 192 64 192
WIRE 384 192 112 192
WIRE 432 224 432 192
WIRE 544 224 544 176
WIRE -16 240 -16 208
WIRE -16 240 -80 240
WIRE -80 272 -80 240
WIRE 16 272 16 208
FLAG -32 160 0
FLAG 544 304 0
FLAG 432 288 0
FLAG 240 144 0
FLAG 288 80 Irms
FLAG 288 64 Vrms
FLAG 288 48 power_factor
FLAG 288 32 reactive_power
FLAG 288 16 active_power
FLAG 288 0 apparent_power
FLAG 112 128 a
FLAG 112 160 b
FLAG 112 192 c
FLAG 576 144 torque
FLAG 576 176 angular_speed
FLAG 16 352 0
FLAG -80 352 0
SYMBOL 3ph_gen 16 160 R0
SYMATTR InstName U1
SYMATTR Value sym=1 f=50 amp=325 phi=0 Ro=0.1 N=1
SYMBOL 3ph_ACMotor 432 160 R0
WINDOW 123 36 -123 Left 2
WINDOW 40 33 -92 Left 2
SYMATTR Value2 Zp=2 J=20m DY=1
SYMATTR InstName U2
SYMBOL Wattmeter 208 128 R0
SYMATTR InstName U3
SYMBOL cap 416 224 R0
WINDOW 123 24 78 Left 2
WINDOW 39 24 100 Left 2
SYMATTR Value2 Rser=1
SYMATTR SpiceLine Rpar=1e6
SYMATTR InstName C1
SYMATTR Value 1n
SYMBOL bi 544 224 R0
SYMATTR InstName B1
SYMATTR Value I=12.5*(tanh(100*time-55)+tanh(75-100*time))
SYMBOL voltage 16 256 R0
SYMATTR InstName V1
SYMATTR Value pwl {t1} {V/k} {t2} {V}
SYMBOL voltage -80 256 R0
WINDOW 3 15 123 Left 2
SYMATTR Value pwl {t1} {f/k} {t2} {f}
SYMATTR InstName V2
TEXT 776 224 Left 2 !.tran 1
TEXT 776 152 Left 2 !.parma V=325 f=50 k=10\n+ t1=1/f t2=20/f
