Version 4
SHEET 1 880 680
WIRE -240 -48 -256 -48
WIRE -128 -48 -160 -48
WIRE -32 -48 -128 -48
WIRE -32 64 -32 -48
WIRE 512 96 416 96
WIRE -240 112 -256 112
WIRE -128 112 -160 112
WIRE -32 112 -128 112
WIRE 512 128 416 128
WIRE 48 144 -32 64
WIRE 80 144 48 144
WIRE 512 160 416 160
WIRE 32 176 -32 112
WIRE 80 176 32 176
WIRE 464 192 416 192
WIRE 80 208 32 208
WIRE 464 224 464 192
WIRE -240 272 -256 272
WIRE -128 272 -160 272
WIRE -32 272 32 208
WIRE -32 272 -128 272
WIRE -32 320 48 240
WIRE 464 336 464 304
WIRE -240 432 -256 432
WIRE -128 432 -160 432
WIRE -32 432 -32 320
WIRE -32 432 -128 432
FLAG -256 -48 0
FLAG -256 112 0
FLAG -256 272 0
FLAG -256 432 0
FLAG -128 -48 A
FLAG -128 112 B
FLAG -128 272 C
FLAG -128 432 N
FLAG 512 96 rpm
IOPIN 512 96 Out
FLAG 512 128 slip
IOPIN 512 128 Out
FLAG 512 160 torq
IOPIN 512 160 Out
FLAG 464 336 0
FLAG 464 192 w
SYMBOL voltage -144 -48 R90
WINDOW 0 -32 56 VBottom 2
WINDOW 3 32 56 VTop 2
WINDOW 123 0 0 Left 2
WINDOW 39 60 56 VTop 2
SYMATTR InstName V1
SYMATTR Value SINE(0 {Vp} {f} 0 0 120)
SYMATTR SpiceLine Rser=1m
SYMBOL voltage -144 112 R90
WINDOW 0 -32 56 VBottom 2
WINDOW 3 32 56 VTop 2
WINDOW 123 0 0 Left 2
WINDOW 39 60 56 VTop 2
SYMATTR InstName V2
SYMATTR Value SINE(0 {Vp*n} {f} 0 0 0)
SYMATTR SpiceLine Rser=1m
SYMBOL voltage -144 272 R90
WINDOW 0 -32 56 VBottom 2
WINDOW 3 32 56 VTop 2
WINDOW 123 0 0 Left 2
WINDOW 39 60 56 VTop 2
SYMATTR InstName V3
SYMATTR Value SINE(0 {Vp} {f} 0 0 -120)
SYMATTR SpiceLine Rser=1m
SYMBOL voltage -144 432 R90
WINDOW 0 -32 56 VBottom 2
WINDOW 3 32 56 VTop 2
WINDOW 123 0 0 Left 2
WINDOW 39 60 56 VTop 2
SYMATTR InstName V4
SYMATTR Value 0
SYMBOL load2 464 224 R0
WINDOW 123 0 0 Left 2
WINDOW 39 0 0 Left 2
SYMATTR InstName I1
SYMATTR Value PULSE(0 8 0.8 1m 1m 1)
SYMBOL 3-PhaseMotor 224 192 R0
WINDOW 39 0 0 Center 2
SYMATTR InstName X1
SYMATTR SpiceLine f=f
TEXT 256 32 Bottom 3 ;1.5kW 3-Phase Induction Motor
TEXT -16 368 Left 2 !.param f=50 V=240\n+ Vp=sqrt(2)*V
TEXT 320 384 Left 2 ;Phase Dropout Start Test
TEXT 320 416 Left 2 !.step param V list 240 200\n.step param n list 1 0
TEXT -16 448 Left 2 !.tran 0 {1u+2} 1u uic
