Version 4
SHEET 1 1848 680
WIRE 336 -96 304 -96
WIRE 448 -96 384 -96
WIRE 768 -96 704 -96
WIRE 880 -96 816 -96
WIRE 368 -64 320 -64
WIRE 448 -64 416 -64
WIRE 800 -64 720 -64
WIRE 880 -64 848 -64
WIRE 288 48 288 -48
WIRE 304 48 304 -96
WIRE 320 48 320 -64
WIRE 336 48 336 -16
WIRE 368 48 368 -32
WIRE 384 48 384 -16
WIRE 688 48 688 -48
WIRE 704 48 704 -96
WIRE 720 48 720 -64
WIRE 736 48 736 -16
WIRE 768 48 768 -32
WIRE 784 48 784 -16
WIRE 224 80 176 80
WIRE 272 80 224 80
WIRE 544 80 400 80
WIRE 672 80 544 80
WIRE 912 80 800 80
WIRE 960 80 912 80
WIRE 272 96 272 80
WIRE 304 96 272 96
WIRE 672 96 672 80
WIRE 704 96 672 96
WIRE 80 112 48 112
WIRE 224 112 176 112
WIRE 528 112 224 112
WIRE 912 112 528 112
WIRE 960 112 912 112
WIRE 1056 112 1024 112
WIRE 224 144 176 144
WIRE 512 144 224 144
WIRE 912 144 512 144
WIRE 960 144 912 144
WIRE 48 224 48 112
WIRE 544 224 544 80
WIRE 560 224 544 224
WIRE 576 224 560 224
WIRE 528 256 528 112
WIRE 560 256 528 256
WIRE 576 256 560 256
WIRE 672 256 640 256
WIRE 512 288 512 144
WIRE 560 288 512 288
WIRE 576 288 560 288
FLAG 48 224 0
FLAG 448 -96 p_in
FLAG 880 -96 p_out
FLAG 448 -64 q_in
FLAG 880 -64 q_out
FLAG 224 80 a
FLAG 224 112 b
FLAG 224 144 c
FLAG 912 80 _a
FLAG 912 112 _b
FLAG 912 144 _c
FLAG 560 224 a-
FLAG 560 256 b-
FLAG 560 288 c-
FLAG 368 96 0
FLAG 768 96 0
SYMBOL 3ph_gen 128 112 R0
SYMATTR InstName Ugen
SYMATTR Value sym=1 f=f amp={V*sqrt(2)} phi=0 Ro=10m N=1
SYMBOL RLC 992 112 R0
WINDOW 39 -37 95 Left 2
WINDOW 40 -37 67 Left 2
SYMATTR SpiceLine V={V*sqrt(3)}  f=f  NUL=1  DY=1  SP=0
SYMATTR SpiceLine2 P=1Meg  QL=350k  QC=0  Rd=0
SYMATTR InstName Uload
SYMBOL RLC 608 256 R0
WINDOW 39 -37 95 Left 2
WINDOW 40 -37 67 Left 2
SYMATTR SpiceLine V={V*sqrt(3)}  f=f  NUL=1  DY=1  SP=0
SYMATTR SpiceLine2 P=0  QL=0  QC=300k  Rd=1
SYMATTR InstName Ucomp
SYMBOL WattMeter 336 80 R0
WINDOW 0 71 -16 Left 2
SYMATTR SpiceLine f=f lim=1e20
SYMATTR InstName Uin
SYMBOL WattMeter 736 80 R0
WINDOW 0 74 -17 Left 2
SYMATTR SpiceLine f=f lim=1e20
SYMATTR InstName Uout
SYMBOL Gain 352 -96 R0
WINDOW 39 -22 24 Invisible 2
SYMATTR SpiceLine G=3
SYMATTR InstName U6
SYMBOL Gain 384 -64 R0
WINDOW 39 -22 24 Invisible 2
SYMATTR SpiceLine G=3
SYMATTR InstName U7
SYMBOL Gain 784 -96 R0
WINDOW 39 -22 24 Invisible 2
SYMATTR SpiceLine G=3
SYMATTR InstName U8
SYMBOL Gain 816 -64 R0
WINDOW 39 -22 24 Invisible 2
SYMATTR SpiceLine G=3
SYMATTR InstName U9
TEXT 1104 -88 Left 2 !.tran 0.1
TEXT 208 -240 Left 4 ;Passive reactive power compensation
TEXT 1072 -16 Left 2 ;This is a simple, transient analysis of a 110kV line with a\nlinear load drawing 1MW and 350kVAr, compensated by\na capacitor battery cancelling 300kVAr of the load.\nSince the loads and source are balanced, the fixed 3x\ngain blocks give the total consumption.
TEXT 1104 -136 Left 2 !.param V=110k  f=50
